24
Coordinates from ORCA-job /scratch/opt_608/opt E -464.569107001350
  C       0.193513      1.121173     -1.744204
  H       0.838709      1.986577     -1.677007
  C       0.739103     -0.159074     -1.680511
  H       1.805822     -0.286922     -1.558001
  C      -0.092248     -1.274349     -1.762094
  H       0.331312     -2.268255     -1.709994
  C      -1.468710     -1.109896     -1.905058
  H      -2.113588     -1.976096     -1.968458
  C      -2.014658      0.171228     -1.966290
  H      -3.082915      0.299399     -2.078448
  C      -1.182960      1.286821     -1.888146
  H      -1.606033      2.281178     -1.937631
  C       1.468628      1.109935      1.905575
  H       2.113473      1.976119      1.969326
  C       2.014581     -0.171216      1.967095
  H       3.082788     -0.299363      2.079839
  C       1.182932     -1.286816      1.888444
  H       1.606013     -2.281169      1.938098
  C      -0.193470     -1.121181      1.743728
  H      -0.838573     -1.986592      1.676095
  C      -0.739030      0.159051      1.679762
  H      -1.805658      0.286881      1.556583
  C       0.092247      1.274332      1.761833
  H      -0.331278      2.268237      1.709464
24
Coordinates from ORCA-job /scratch/opt_608/opt E -464.570167917452
  C       0.195211      1.123615     -1.743419
  H       0.846521      1.997253     -1.674517
  C       0.741822     -0.159422     -1.679417
  H       1.818406     -0.288518     -1.554567
  C      -0.091125     -1.277189     -1.761374
  H       0.336638     -2.280578     -1.707776
  C      -1.470693     -1.112603     -1.905216
  H      -2.121842     -1.987410     -1.968686
  C      -2.017899      0.171647     -1.967045
  H      -3.096766      0.301138     -2.080013
  C      -1.184228      1.289899     -1.888139
  H      -1.611422      2.294092     -1.937463
  C       1.470618      1.112628      1.905734
  H       2.121739      1.987429      1.969561
  C       2.017816     -0.171629      1.967848
  H       3.096624     -0.301097      2.081411
  C       1.184203     -1.289889      1.888437
  H       1.611403     -2.294073      1.937935
  C      -0.195161     -1.123625      1.742942
  H      -0.846393     -1.997285      1.673600
  C      -0.741748      0.159399      1.678666
  H      -1.818254      0.288479      1.553141
  C       0.091132      1.277175      1.761112
  H      -0.336600      2.280564      1.707244
24
Coordinates from ORCA-job /scratch/opt_608/opt E -464.570189375361
  C       0.196214      1.123975     -1.740488
  H       0.847585      1.997767     -1.670763
  C       0.742925     -0.159469     -1.676342
  H       1.819592     -0.288595     -1.550554
  C      -0.090215     -1.277626     -1.758450
  H       0.337651     -2.281134     -1.704054
  C      -1.470264     -1.113062     -1.902748
  H      -2.121533     -1.988065     -1.965882
  C      -2.017635      0.171717     -1.964917
  H      -3.096711      0.301254     -2.077714
  C      -1.183664      1.290420     -1.885577
  H      -1.610974      2.294804     -1.934460
  C       1.470192      1.113081      1.903264
  H       2.121427      1.988082      1.966759
  C       2.017550     -0.171697      1.965719
  H       3.096566     -0.301212      2.079111
  C       1.183642     -1.290409      1.885874
  H       1.610954     -2.294784      1.934934
  C      -0.196159     -1.123987      1.740010
  H      -0.847459     -1.997796      1.669848
  C      -0.742851      0.159447      1.675590
  H      -1.819440      0.288557      1.549129
  C       0.090224      1.277614      1.758187
  H      -0.337616      2.281120      1.703523
24
Coordinates from ORCA-job /scratch/opt_608/opt E -464.570231860338
  C       0.198997      1.124460     -1.730973
  H       0.850198      1.998307     -1.658844
  C       0.745797     -0.159527     -1.666401
  H       1.822208     -0.288677     -1.537847
  C      -0.087571     -1.278222     -1.748951
  H       0.340322     -2.281672     -1.692206
  C      -1.468254     -1.113712     -1.894547
  H      -2.119602     -1.988845     -1.956772
  C      -2.015809      0.171822     -1.957644
  H      -3.095009      0.301418     -2.069977
  C      -1.181461      1.291178     -1.877108
  H      -1.608959      2.295637     -1.924755
  C       1.468187      1.113719      1.895060
  H       2.119487      1.988863      1.957653
  C       2.015722     -0.171798      1.958439
  H       3.094863     -0.301378      2.071369
  C       1.181445     -1.291168      1.877402
  H       1.608935     -2.295621      1.925237
  C      -0.198931     -1.124474      1.730493
  H      -0.850075     -1.998328      1.657937
  C      -0.745722      0.159507      1.665646
  H      -1.822053      0.288642      1.536427
  C       0.087583      1.278216      1.748685
  H      -0.340297      2.281656      1.691679
24
Coordinates from ORCA-job /scratch/opt_608/opt E -464.570264841064
  C       0.201414      1.124498     -1.721532
  H       0.852333      1.998288     -1.647197
  C       0.748175     -0.159521     -1.656549
  H       1.824192     -0.288672     -1.525394
  C      -0.085184     -1.278271     -1.739532
  H       0.342590     -2.281579     -1.680621
  C      -1.465860     -1.113791     -1.886302
  H      -2.117212     -1.988899     -1.947821
  C      -2.013380      0.171846     -1.950150
  H      -3.092551      0.301461     -2.062183
  C      -1.179051      1.291295     -1.868623
  H      -1.606676      2.295682     -1.915244
  C       1.465796      1.113793      1.886810
  H       2.117087      1.988923      1.948704
  C       2.013295     -0.171820      1.950936
  H       3.092407     -0.301423      2.063567
  C       1.179040     -1.291287      1.868913
  H       1.606650     -2.295671      1.915732
  C      -0.201340     -1.124513      1.721050
  H      -0.852214     -1.998302      1.646298
  C      -0.748097      0.159501      1.655792
  H      -1.824034      0.288636      1.523981
  C       0.085197      1.278267      1.739262
  H      -0.342576      2.281559      1.680100
24
Coordinates from ORCA-job /scratch/opt_608/opt E -464.570291523373
  C       0.203553      1.124259     -1.712118
  H       0.854144      1.997940     -1.635734
  C       0.750229     -0.159470     -1.646708
  H       1.825784     -0.288601     -1.513024
  C      -0.082999     -1.277962     -1.730163
  H       0.344543     -2.281114     -1.669231
  C      -1.463246     -1.113489     -1.878039
  H      -2.114559     -1.988499     -1.939108
  C      -2.010617      0.171817     -1.942435
  H      -3.089674      0.301417     -2.054412
  C      -1.176552      1.290977     -1.860140
  H      -1.604235      2.295239     -1.905989
  C       1.463180      1.113494      1.878539
  H       2.114424      1.988530      1.939990
  C       2.010536     -0.171791      1.943212
  H       3.089533     -0.301381      2.055785
  C       1.176544     -1.290971      1.860426
  H       1.604210     -2.295231      1.906484
  C      -0.203476     -1.124274      1.711636
  H      -0.854028     -1.997949      1.634845
  C      -0.750147      0.159449      1.645952
  H      -1.825622      0.288562      1.511623
  C       0.083011      1.277957      1.729891
  H      -0.344535      2.281092      1.668719
24
Coordinates from ORCA-job /scratch/opt_608/opt E -464.570305369301
  C       0.205606      1.124012     -1.702655
  H       0.855924      1.997605     -1.624298
  C       0.752223     -0.159406     -1.636780
  H       1.827352     -0.288511     -1.500522
  C      -0.080881     -1.277617     -1.720782
  H       0.346418     -2.280675     -1.657913
  C      -1.460660     -1.113168     -1.869773
  H      -2.111932     -1.988130     -1.930616
  C      -2.007919      0.171783     -1.934558
  H      -3.086887      0.301360     -2.046741
  C      -1.174104      1.290617     -1.851664
  H      -1.601780      2.294830     -1.896964
  C       1.460591      1.113179      1.870263
  H       2.111794      1.988166      1.931492
  C       2.007840     -0.171758      1.935321
  H       3.086748     -0.301322      2.048099
  C       1.174097     -1.290612      1.851945
  H       1.601758     -2.294821      1.897464
  C      -0.205530     -1.124027      1.702174
  H      -0.855808     -1.997614      1.623422
  C      -0.752140      0.159382      1.636028
  H      -1.827189      0.288465      1.499137
  C       0.080891      1.277610      1.720511
  H      -0.346412      2.280651      1.657412
24
Coordinates from ORCA-job /scratch/opt_608/opt E -464.570307553904
  C       0.206441      1.123983     -1.698686
  H       0.856696      1.997546     -1.619575
  C       0.753070     -0.159380     -1.632581
  H       1.828042     -0.288469     -1.495205
  C      -0.080020     -1.277547     -1.716886
  H       0.347192     -2.280592     -1.653287
  C      -1.459700     -1.113125     -1.866365
  H      -2.110941     -1.988098     -1.927287
  C      -2.006974      0.171781     -1.931199
  H      -3.085908      0.301343     -2.043689
  C      -1.173185      1.290557     -1.848176
  H      -1.600799      2.294796     -1.893430
  C       1.459630      1.113140      1.866848
  H       2.110806      1.988134      1.928157
  C       2.006895     -0.171755      1.931954
  H       3.085769     -0.301301      2.045036
  C       1.173177     -1.290551      1.848453
  H       1.600781     -2.294783      1.893931
  C      -0.206368     -1.123998      1.698208
  H      -0.856578     -1.997559      1.618706
  C      -0.752988      0.159354      1.631834
  H      -1.827882      0.288419      1.493833
  C       0.080027      1.277537      1.716616
  H      -0.347184      2.280569      1.652792
24
Coordinates from ORCA-job /scratch/opt_608/opt E -464.570308186164
  C       0.206559      1.124019     -1.697833
  H       0.856837      1.997572     -1.618668
  C       0.753214     -0.159371     -1.631637
  H       1.828161     -0.288450     -1.494000
  C      -0.079891     -1.277566     -1.716091
  H       0.347307     -2.280626     -1.652456
  C      -1.459602     -1.113160     -1.865689
  H      -2.110811     -1.988149     -1.926845
  C      -2.006920      0.171787     -1.930405
  H      -3.085827      0.301336     -2.043220
  C      -1.173091      1.290589     -1.847494
  H      -1.600632      2.294859     -1.892973
  C       1.459529      1.113177      1.866168
  H       2.110681      1.988182      1.927707
  C       2.006839     -0.171760      1.931154
  H       3.085688     -0.301291      2.044559
  C       1.173082     -1.290581      1.847770
  H       1.600618     -2.294843      1.893472
  C      -0.206488     -1.124035      1.697358
  H      -0.856716     -1.997590      1.617805
  C      -0.753134      0.159343      1.630895
  H      -1.828002      0.288398      1.492636
  C       0.079897      1.277556      1.715823
  H      -0.347296      2.280604      1.651965
