%nproc=8
%chk=003.chk
#p TD=(Nstates=10) B3LYP/def2SVP 

Benzene_dimer TDDFT

0 1  
  C    0.20655900933168      1.12401875330578     -1.69783269338316
  H    0.85683700990439      1.99757201896152     -1.61866825188587
  C    0.75321369948925     -0.15937083359798     -1.63163731869113
  H    1.82816066985289     -0.28844998154764     -1.49399960251102
  C   -0.07989115582923     -1.27756590561903     -1.71609116699976
  H    0.34730709887579     -2.28062566441247     -1.65245598215762
  C   -1.45960163884573     -1.11316001777857     -1.86568917044782
  H   -2.11081133217312     -1.98814920817898     -1.92684454829684
  C   -2.00691956999193      0.17178690568351     -1.93040479631601
  H   -3.08582735162303      0.30133585154097     -2.04322008808555
  C   -1.17309110496590      1.29058938768157     -1.84749433409696
  H   -1.60063222359755      2.29485928574380     -1.89297302082871
  C    1.45952912909081      1.11317667487360      1.86616838075547
  H    2.11068089210384      1.98818222289387      1.92770724010431
  C    2.00683929343727     -0.17176006321808      1.93115383708964
  H    3.08568750387843     -0.30129059325900      2.04455850470729
  C    1.17308192319097     -1.29058145044563      1.84777005194660
  H    1.60061795129659     -2.29484345562128      1.89347168808852
  C   -0.20648836763584     -1.12403481614961      1.69735814459823
  H   -0.85671552983523     -1.99759033832610      1.61780507906084
  C   -0.75313442696045      0.15934349408964      1.63089464913629
  H   -1.82800241967787      0.28839810009040      1.49263592869004
  C    0.07989681399360      1.27755576709370      1.71582292387519
  H   -0.34729585330963      2.28060384619600      1.65196453564804
  


